.MODEL BC337 NPN (IS=0.180P NF=1.000 BF=449.302 VAF=95.000 IKF=0.820 
+ ISE=8.480F NE=1.566 NR=1.005 BR=16.919 VAR=13.000 IKR=0.663 
+ ISC=0.102P NC=1.764 
+ RB=0.750 IRB=0.100M RBM=0.375 
+ RE=0.170 RC=0.289 
+ CJE=63.400P VJE=0.850 MJE=0.372 FC=0.750 
+ CJC=16.600P VJC=0.780 MJC=0.433 XCJC=0.650 
+ TF=0.810N TR=2.600N PTF=1.000 
+ XTF=4.300 VTF=1.500 ITF=0.450 
+ XTB=1.500 EG=1.110 XTI=4.800 
+ KF=5.000F AF=1.000)
