*SRC=1N4148;1N4148;Diodes;Si;100V  150mA  4.0ns  Central Semi Central Semi
.MODEL 1N4148 D  ( IS=6.2229E-9
+ N=1.9224
+ RS=.33636
+ IKF=42.843E-3
+ CJO=764.38E-15
+ M=.1001
+ VJ=9.9900
+ ISR=11.526E-9
+ NR=4.9950
+ BV=100.14
+ IBV=.25951
+ TT=2.8854E-9 )
******

