*
* http://chuck-wright.com/apppv/pv_spice.html
* http://www.intusoft.com/nlhtm/nl78.htm
*
.SUBCKT PHVCELL 1 3 Iirr = 4

Ii 2 1 {Iirr} 
D1 1 2  diode1
R1 1 2 150
R2 2 3 1

.MODEL  1N4007P  D(IS=3.872n RS=1.66E-02 N=1.776 XTI=3.0 EG=1.110 
+               CJO=1.519E-11 M=0.3554 VJ=0.5928 FC=0.5 ISR=1.356E-09
+               NR=2.152 BV=1000.0 IBV=1.0E-03 Tt=4u)

.model diode1 D(IS=1e-6 N=1.5)

.ENDS
