.include ../components/BC547B.model 
.include ../components/1N4148B.model 

* VCC VDD v+ v-
.SUBCKT DIFFSTAGE 1 2 3 4 5 6 


R1 1 5 3K
R3 7 9 300
R2 1 6 3K
R4 8 9 300

Q1 5 3 7 BC547B
Q2 6 4 8 BC547B

D1 11 12 1N4148 
D2 12 2 1N4148 
R6 1 11 10K
R5 10 2 180 
Q3 9 11 10 BC547B

.ENDS
