* vi+ vi- vo+ vo- 2vi ref
.SUBCKT DOUBLERSPLIT 1 2 3 4 5 2
D1 1 3 1N4007P
D2 4 1 1N4007P
D3 0 6 1N4007P
D4 6 5 1N4007P
C1 3 2 100u
C2 2 4 1000u
C3 1 6 100u
C4 5 0 1000u
.MODEL  1N4007P  D(IS=3.872n RS=1.66E-02 N=1.776 XTI=3.0 EG=1.110 
+               CJO=1.519E-11 M=0.3554 VJ=0.5928 FC=0.5 ISR=1.356E-09
+               NR=2.152 BV=1000.0 IBV=1.0E-03 Tt=4u)
.ENDS


