.SUBCKT PREREG57 200 0 202

R8  200 203  1000
CB2 203 0 10u
R7 203 201 1000
DZ1  0 201 DZ56
CB1 201 0 10u
.model DZ56 D ( BV=56 IBV=17m )

Q1 200 201 202 BD139

.ENDS


