* vcc ref vi+ vi- vo+ vo-
.include BD139.SP3
.include BD140.LIB

.SUBCKT PONTEH 1 2 3 4 5 6 Rbase = 100

XQ1 5 7 1 BD140
Q2 5 8 2 BD139

D1 5 1 1N4007
D2 2 5 1N4007

R1 7 3 {Rbase}
R2 8 3 {Rbase}

XQ3 6 9 1 BD140
Q4 6 10 2 BD139

D3 6 1 1N4007
D4 1 6 1N4007

R3 9 4 {Rbase}
R4 10 4 {Rbase}

.MODEL  1N4007  D(IS=3.872n RS=1.66E-02 N=1.776 XTI=3.0 EG=1.110 
+               CJO=1.519E-11 M=0.3554 VJ=0.5928 FC=0.5 BV=1000.0 IBV=1.0E-03 Tt=4u)

.model diode1 D
.model trp1 PNP
.model trn1 NPN


.ENDS
