* vcc ref vi+ vi- vo+ vo-
.SUBCKT PONTEH 1 2 3 4 5 6

Q1 5 7 1 BC557
Q2 5 8 2 BC547B

D1 5 1 1N4148
D2 2 5 1N4148

R1 7 3 500
R2 8 3 500

Q3 6 9 1 BC557
Q4 6 10 2 BC547B

D3 6 1 1N4148
D4 1 6 1N4148

R3 9 4 500
R4 10 4 500


.ENDS
