.SUBCKT PREREG57 200 0 202

R8 203 200 1000
R7 203 201 1000
CB2 203 0 10u

DZ1  0 201 DZ25
CB1 201 0 10u
.model DZ47 D ( BV=56.5 IBV=17m )

Q1 200 201 202 BC547B
.MODEL BC547B  NPN (BF=100 NE=1.3 ISE=9.72F IKF=80M IS=20F VAF=50V
+      BR=10 NC=2 ISC=47P IKR=12M VAR=10
+      RB=280 RE=1 RC=40 TR=.3U
+      CJE=12P VJE=.48 MJE=0.5 CJC=6P VJC=.7 MJC=.33 TF=.5N)


.ENDS


