* vi+ ref vo+ 
.SUBCKT TRIPLER 1 2 5

D1 1 3 1N4007P
D2 3 4 1N4007P
D3 4 5 1N4007P

C1 3 2 1000u
C2 1 4 1000u
C3 3 5 1000u

Cltr1 5 2 4000u
.MODEL  1N4007P  D(IS=3.872n RS=1.66E-02 N=1.776 XTI=3.0 EG=1.110 
+               CJO=1.519E-11 M=0.3554 VJ=0.5928 FC=0.5 ISR=1.356E-09
+               NR=2.152 BV=1000.0 IBV=1.0E-03 Tt=4u)
.ENDS
